LAMMPS (17 Apr 2024)
# LAMMPS input script to minimize energy

units real
atom_style full
bond_style hybrid harmonic zero
angle_style hybrid harmonic zero
dihedral_style opls

pair_style lj/cut/coul/cut 10.0

special_bonds lj 0.0 0.0 0.5

read_data spce-model/co2_water_in_cnt.data
Reading data file ...
  orthogonal box = (-40 -40 -0.0005) to (40 40 33.2295)
  reading atoms ...
  618 atoms
  scanning bonds ...
  scanning angles ...
  scanning dihedrals ...
  orthogonal box = (-40 -40 -0.0005) to (40 40 33.2295)
  reading bonds ...
  747 bonds
  reading angles ...
  1266 angles
  reading dihedrals ...
  2350 dihedrals
Finding 1-2 1-3 1-4 neighbors ...
     3 = max # of 1-2 neighbors
     6 = max # of 1-3 neighbors
    18 = max # of 1-4 neighbors
    18 = max # of special neighbors

group carbon_atoms type 1
420 atoms in group carbon_atoms
group H2O type 2 3
195 atoms in group H2O
group CO2 type 4 5
3 atoms in group CO2
group liquid union H2O CO2
198 atoms in group liquid

# Carbon Nanotube
pair_coeff 1 1 0.066 3.4
bond_coeff 1 harmonic 469 1.4
angle_coeff 1 harmonic 63 120
dihedral_coeff 1 0 7.25 0 0

# SPC/E
pair_coeff 3 3 0.1553 3.166 # O-O
pair_coeff 3 2 0.0    1.0 # O-H
pair_coeff 2 2 0.0    1.0 # H-H
pair_coeff 3 1 0.11831 3.28218 # O-C (amber)

bond_coeff 2 zero 1.0
angle_coeff 2 zero 109.47

# CO2
pair_coeff 4 4 0.053649 2.8 # CO2
pair_coeff 5 5 0.156973 3.05 # CO2
bond_coeff 3 harmonic 2566.7 1.16
angle_coeff 3 harmonic 295.4 180.00

# Neighbor settings
neighbor 2.0 bin
neigh_modify every 1 delay 0 check yes

# Compute temperature, pressure, and energy for H2O group
compute temp_H2O H2O temp
compute pe_H2O H2O pe/atom
compute ke_H2O H2O ke/atom

# Reduce computes to get overall values for the H2O group
compute reduce_pe_H2O H2O reduce sum c_pe_H2O
compute reduce_ke_H2O H2O reduce sum c_ke_H2O

# Calculate the total energy for the H2O group
variable etotal_H2O equal c_reduce_pe_H2O+c_reduce_ke_H2O

fix rigid H2O shake 0.0001 100 10000 b 2 a 2
Finding SHAKE clusters ...
       0 = # of size 2 clusters
       0 = # of size 3 clusters
       0 = # of size 4 clusters
      65 = # of frozen angles
  find clusters CPU = 0.000 seconds
# velocity H2O create 1.0 5463576
minimize 1.0e-4 1.0e-6 1000 10000
Generated 8 of 10 mixed pair_coeff terms from geometric mixing rule
  Substituting constraints with harmonic restraint forces using kbond=1987 (src/RIGID/fix_shake.cpp:360)
Step          Temp          E_pair         E_mol          TotEng         Press
0   0              16474680       1175.6584      16475856       21251218
Bond:   2   1.00831   0.0342656        130
Angle:  2   107.722   5.84275           65
Loop time of 0.595291 on 1 procs for 28 steps with 618 atoms

Minimization stats:
  Stopping criterion = linesearch alpha is zero
  Energy initial, next-to-last, final =
  Force two-norm initial, final = 87800904 620.9027
  Force max component initial, final = 17004022 183.33171
  Final line search alpha, max atom move = 1.6994063e-14 3.1155506e-12
  Iterations, force evaluations = 28 116

dump mydmp all atom 1000 dump5.lammpstrj

thermo_style custom step temp press etotal ke pe c_temp_H2O c_reduce_pe_H2O c_reduce_ke_H2O v_etotal_H2O
thermo 1000

fix extra all print 1000 """
- timestep: $(step)
  temp: $(c_temp_H2O)
  etotal: $(v_etotal_H2O)
  pe: $(c_reduce_pe_H2O)
  ke: $(c_reduce_ke_H2O)
  """ file output.yaml screen no

fix mynve liquid nve/limit 0.1
fix myber liquid temp/berendsen 1 1 100
timestep 1.0
run 20000
Generated 8 of 10 mixed pair_coeff terms from geometric mixing rule
SHAKE stats (type/ave/delta/count) on step 28
Bond:   2   1.00831   0.0342656        130
Angle:  2   107.722   5.84275           65
Step          Temp          Press          TotEng         KinEng         PotEng       c_temp_H2O   c_reduce_pe_H2O c_reduce_ke_H2O  v_etotal_H2O
28   0              1636.9884      2844.7681      0              2844.7681      0              410.34431      0              410.34431
Averages over the last 5 of 10 rows, steps 5000 to 9000:
Temp Press TotEng KinEng PotEng c_temp_H2O c_reduce_pe_H2O c_reduce_ke_H2O v_etotal_H2O
0.242766 823.667 1908.22 0.39945 1907.82 1.01978 -404.902 0.39213 -404.51
Bond:   2   1         7.85447e-07      130
Angle:  2   109.47    7.68596e-05       65
SHAKE stats (type/ave/delta/count) on step 20000
Bond:   2   1         7.70012e-07      130
Angle:  2   109.47    7.9495e-05        65
Loop time of 79.6877 on 1 procs for 20000 steps with 618 atoms

fix 1 liquid temp/berendsen 300.0 300.0 100.0
timestep 1.0
run 20000
Generated 8 of 10 mixed pair_coeff terms from geometric mixing rule
SHAKE stats (type/ave/delta/count) on step 20028
Bond:   2   1         8.2574e-07       130
Angle:  2   109.47    7.57083e-05       65
Step          Temp          Press          TotEng         KinEng         PotEng       c_temp_H2O   c_reduce_pe_H2O c_reduce_ke_H2O  v_etotal_H2O
20028   0.23706779     820.4779       1880.063       0.39007304     1879.673       0.98771163    -428.99973      0.37979932    -428.61993
Averages over the last 5 of 10 rows, steps 25000 to 29000:
Temp Press TotEng KinEng PotEng c_temp_H2O c_reduce_pe_H2O c_reduce_ke_H2O v_etotal_H2O
36.3023 774.537 1170.42 59.7321 1110.69 152.274 -1179.12 58.553 -1120.56
Bond:   2   1         8.33036e-07      130
Angle:  2   109.47    7.99829e-05       65
SHAKE stats (type/ave/delta/count) on step 40000
Bond:   2   1         7.3251e-07       130
Angle:  2   109.47    7.31958e-05       65
Loop time of 80.8695 on 1 procs for 20000 steps with 618 atoms

unfix mynve
fix all_nve liquid nve
run 20000
Generated 8 of 10 mixed pair_coeff terms from geometric mixing rule
SHAKE stats (type/ave/delta/count) on step 40028
Bond:   2   1         1.95062e-06      130
Angle:  2   109.47    0.000133482       65
Step          Temp          Press          TotEng         KinEng         PotEng       c_temp_H2O   c_reduce_pe_H2O c_reduce_ke_H2O  v_etotal_H2O
40028   38.083067      768.76857      1203.1711      62.662151      1140.5089      160.96499     -1149.7669      61.894983     -1087.8719
Averages over the last 5 of 10 rows, steps 45000 to 49000:
Temp Press TotEng KinEng PotEng c_temp_H2O c_reduce_pe_H2O c_reduce_ke_H2O v_etotal_H2O
35.393 775.662 1164.6 58.2358 1106.36 148.03 -1180.84 56.9212 -1123.91
Bond:   2   1         1.04041e-06      130
Angle:  2   109.47    0.00010569        65
SHAKE stats (type/ave/delta/count) on step 60000
Bond:   2   1         9.73796e-07      130
Angle:  2   109.47    7.94149e-05       65
Loop time of 80.8351 on 1 procs for 20000 steps with 618 atoms

unfix all_nve
fix nvt_equil_H2O liquid nvt temp 300.0 300.0 100.0
run 60000
Generated 8 of 10 mixed pair_coeff terms from geometric mixing rule
SHAKE stats (type/ave/delta/count) on step 60028
Bond:   2   1         1.04841e-06      130
Angle:  2   109.47    7.25283e-05       65
Step          Temp          Press          TotEng         KinEng         PotEng       c_temp_H2O   c_reduce_pe_H2O c_reduce_ke_H2O  v_etotal_H2O
60028   35.84559       746.01488      994.43973      58.980591      935.45914      150.56229     -1340.1826      57.89489      -1282.2877
Averages over the last 5 of 10 rows, steps 65000 to 69000:
Temp Press TotEng KinEng PotEng c_temp_H2O c_reduce_pe_H2O c_reduce_ke_H2O v_etotal_H2O
50.681 805.981 1381.43 83.3909 1298.04 212.098 -990.237 81.557 -908.68
Bond:   2   1         9.25044e-07      130
Angle:  2   109.47    8.31015e-05       65
SHAKE stats (type/ave/delta/count) on step 80000
Bond:   2   1         9.76989e-07      130
Angle:  2   109.47    8.24713e-05       65
SHAKE stats (type/ave/delta/count) on step 90000
Bond:   2   1         1.33996e-06      130
Angle:  2   109.47    7.85863e-05       65
SHAKE stats (type/ave/delta/count) on step 100000
Bond:   2   1         8.17194e-07      130
Angle:  2   109.47    8.63873e-05       65
SHAKE stats (type/ave/delta/count) on step 110000
Bond:   2   1         1.44822e-06      130
Angle:  2   109.47    0.000132754       65
SHAKE stats (type/ave/delta/count) on step 120000
Bond:   2   1         9.17658e-07      130
Angle:  2   109.47    9.37821e-05       65
Loop time of 246.416 on 1 procs for 60000 steps with 618 atoms

write_data spce.data nocoeff
System init for write_data ...
Generated 8 of 10 mixed pair_coeff terms from geometric mixing rule
