LAMMPS (17 Apr 2024)
units real
atom_style full
region box block -5 5 -5 5 -5 5
create_box 2 box  bond/types 1 angle/types 1                 extra/bond/per/atom 2 extra/angle/per/atom 1 extra/special/per/atom 2
Created orthogonal box = (-5 -5 -5) to (5 5 5)

mass 1 15.9994
mass 2 1.008

pair_style lj/cut/coul/cut 10.0
pair_coeff 1 1 0.1553 3.166
pair_coeff 1 2 0.0    1.0
pair_coeff 2 2 0.0    1.0

bond_style zero
bond_coeff 1 1.0

angle_style zero
angle_coeff 1 109.47

molecule water spce.mol
Read molecule template water:
# Water molecule. SPC/E geometry
  1 molecules
  0 fragments
  3 atoms with max type 2
  2 bonds with max type 1
  1 angles with max type 1
  0 dihedrals with max type 0
  0 impropers with max type 0
create_atoms 0 random 33 34564 NULL mol water 25367 overlap 1.33
Created 99 atoms

timestep 1.0
fix rigid     all shake 0.0001 10 10000 b 1 a 1
Finding SHAKE clusters ...
       0 = # of size 2 clusters
       0 = # of size 3 clusters
       0 = # of size 4 clusters
      33 = # of frozen angles
  find clusters CPU = 0.000 seconds
minimize 0.0 0.0 1000 10000
Generated 0 of 1 mixed pair_coeff terms from geometric mixing rule
  Substituting constraints with harmonic restraint forces using kbond=1987 (src/RIGID/fix_shake.cpp:360)
Step          Temp          E_pair         E_mol          TotEng         Press
0   0             -691.70854      0             -691.70854      51979.684
Bond:   1   0.997309  0.117585          66
Angle:  1   110.002   12.1744           33
Loop time of 0.0883273 on 1 procs for 2 steps with 99 atoms

Minimization stats:
  Stopping criterion = linesearch alpha is zero
  Energy initial, next-to-last, final =
  Force two-norm initial, final = 930.75228 720.59354
  Force max component initial, final = 520.63762 380.63759
  Final line search alpha, max atom move = 3.0672901e-14 1.1675259e-11
  Iterations, force evaluations = 2 68

velocity all create 300.0 5463576
fix integrate all nvt temp 300.0 300.0 100.0

dump mydump all atom 1000 dump.lammpstrj

thermo_style custom step temp press etotal density pe ke
thermo 1000
run 20000 upto
Generated 0 of 1 mixed pair_coeff terms from geometric mixing rule
SHAKE stats (type/ave/delta/count) on step 2
Bond:   1   0.997309  0.117585          66
Angle:  1   110.002   12.1744           33
Step          Temp          Press          TotEng        Density         PotEng         KinEng
2   300            22964.629     -891.61036      0.987204      -949.73615      58.125796
Averages over the last 5 of 10 rows, steps 5000 to 9000:
Temp Press TotEng Density PotEng KinEng
292.453 -34941.5 -1524.78 0.987204 -1581.44 56.6635
Bond:   1   1         1.34056e-06       66
Angle:  1   109.47    0.000114938       33
SHAKE stats (type/ave/delta/count) on step 20000
Bond:   1   1         7.38266e-07       66
Angle:  1   109.47    7.19631e-05       33
Loop time of 22.5951 on 1 procs for 19998 steps with 99 atoms

write_data spce.data nocoeff
System init for write_data ...
Generated 0 of 1 mixed pair_coeff terms from geometric mixing rule
